<?xml version="1.0" encoding="UTF-8"?>

<!-- generated on 2023-03-31 14:37:44 by Eclipse SUMO netedit Version 1.14.1
<configuration xmlns:xsi="http://www.w3.org/2001/XMLSchema-instance" xsi:noNamespaceSchemaLocation="http://sumo.dlr.de/xsd/netconvertConfiguration.xsd">

    <input>
        <sumo-net-file value="D:\360MoveData\Users\hyh123\Desktop\大论文相关文件\python_resource\wenyuanbei.net.xml"/>
    </input>

    <output>
        <output-file value="D:\360MoveData\Users\hyh123\Desktop\大论文相关文件\python_resource\wenyuanbei.net.xml"/>
    </output>

    <processing>
        <geometry.min-radius.fix.railways value="false"/>
        <geometry.max-grade.fix value="false"/>
        <offset.disable-normalization value="true"/>
        <lefthand value="false"/>
    </processing>

    <junctions>
        <no-turnarounds value="true"/>
        <junctions.corner-detail value="5"/>
        <junctions.limit-turn-speed value="5.5"/>
        <rectangular-lane-cut value="false"/>
    </junctions>

    <pedestrian>
        <walkingareas value="false"/>
    </pedestrian>

</configuration>
-->

<net version="1.9" junctionCornerDetail="5" limitTurnSpeed="5.50" xmlns:xsi="http://www.w3.org/2001/XMLSchema-instance" xsi:noNamespaceSchemaLocation="http://sumo.dlr.de/xsd/net_file.xsd">

    <location netOffset="-240626.64,-3357291.65" convBoundary="29.87,495.84,6454.60,3457.03" origBoundary="120.294163,30.294530,120.399460,30.376026" projParameter="+proj=utm +zone=51 +ellps=WGS84 +datum=WGS84 +units=m +no_defs"/>

    <type id="highway.bridleway" priority="1" numLanes="1" speed="2.78" allow="pedestrian" oneway="1" width="2.00"/>
    <type id="highway.bus_guideway" priority="1" numLanes="1" speed="27.78" allow="bus" oneway="1"/>
    <type id="highway.cycleway" priority="1" numLanes="1" speed="5.56" allow="bicycle" oneway="0" width="1.00"/>
    <type id="highway.footway" priority="1" numLanes="1" speed="2.78" allow="pedestrian" oneway="1" width="2.00"/>
    <type id="highway.ford" priority="1" numLanes="1" speed="2.78" allow="army" oneway="0"/>
    <type id="highway.living_street" priority="2" numLanes="1" speed="2.78" disallow="tram rail_urban rail rail_electric rail_fast ship" oneway="0"/>
    <type id="highway.motorway" priority="14" numLanes="2" speed="39.44" allow="private emergency authority army vip passenger hov taxi bus coach delivery truck trailer motorcycle evehicle custom1 custom2" oneway="1"/>
    <type id="highway.motorway_link" priority="9" numLanes="1" speed="22.22" allow="private emergency authority army vip passenger hov taxi bus coach delivery truck trailer motorcycle evehicle custom1 custom2" oneway="1"/>
    <type id="highway.path" priority="1" numLanes="1" speed="5.56" allow="pedestrian bicycle" oneway="0" width="2.00"/>
    <type id="highway.pedestrian" priority="1" numLanes="1" speed="2.78" allow="pedestrian" oneway="1" width="2.00"/>
    <type id="highway.primary" priority="12" numLanes="2" speed="27.78" disallow="tram rail_urban rail rail_electric rail_fast ship" oneway="0"/>
    <type id="highway.primary_link" priority="7" numLanes="1" speed="22.22" disallow="tram rail_urban rail rail_electric rail_fast ship" oneway="0"/>
    <type id="highway.raceway" priority="15" numLanes="2" speed="83.33" allow="vip" oneway="0"/>
    <type id="highway.residential" priority="3" numLanes="1" speed="13.89" disallow="tram rail_urban rail rail_electric rail_fast ship" oneway="0"/>
    <type id="highway.secondary" priority="11" numLanes="1" speed="27.78" disallow="tram rail_urban rail rail_electric rail_fast ship" oneway="0"/>
    <type id="highway.secondary_link" priority="6" numLanes="1" speed="22.22" disallow="tram rail_urban rail rail_electric rail_fast ship" oneway="0"/>
    <type id="highway.service" priority="1" numLanes="1" speed="5.56" allow="pedestrian delivery bicycle" oneway="0"/>
    <type id="highway.stairs" priority="1" numLanes="1" speed="1.39" allow="pedestrian" oneway="1" width="2.00"/>
    <type id="highway.step" priority="1" numLanes="1" speed="1.39" allow="pedestrian" oneway="1" width="2.00"/>
    <type id="highway.steps" priority="1" numLanes="1" speed="1.39" allow="pedestrian" oneway="1" width="2.00"/>
    <type id="highway.tertiary" priority="10" numLanes="1" speed="22.22" disallow="tram rail_urban rail rail_electric rail_fast ship" oneway="0"/>
    <type id="highway.tertiary_link" priority="5" numLanes="1" speed="22.22" disallow="tram rail_urban rail rail_electric rail_fast ship" oneway="0"/>
    <type id="highway.track" priority="1" numLanes="1" speed="5.56" allow="pedestrian motorcycle moped bicycle" oneway="0"/>
    <type id="highway.trunk" priority="13" numLanes="2" speed="27.78" disallow="pedestrian bicycle tram rail_urban rail rail_electric rail_fast ship" oneway="0"/>
    <type id="highway.trunk_link" priority="8" numLanes="1" speed="22.22" disallow="pedestrian bicycle tram rail_urban rail rail_electric rail_fast ship" oneway="0"/>
    <type id="highway.unclassified" priority="4" numLanes="1" speed="13.89" disallow="tram rail_urban rail rail_electric rail_fast ship" oneway="0"/>
    <type id="highway.unsurfaced" priority="1" numLanes="1" speed="8.33" disallow="tram rail_urban rail rail_electric rail_fast ship" oneway="0"/>
    <type id="railway.highspeed" priority="21" numLanes="1" speed="69.44" allow="rail_fast" oneway="1"/>
    <type id="railway.light_rail" priority="19" numLanes="1" speed="27.78" allow="rail_urban" oneway="1"/>
    <type id="railway.preserved" priority="16" numLanes="1" speed="27.78" allow="rail" oneway="1"/>
    <type id="railway.rail" priority="20" numLanes="1" speed="44.44" allow="rail" oneway="1"/>
    <type id="railway.subway" priority="18" numLanes="1" speed="27.78" allow="rail_urban" oneway="1"/>
    <type id="railway.tram" priority="17" numLanes="1" speed="13.89" allow="tram" oneway="1"/>

    <edge id=":10196784362_0" function="internal">
        <lane id=":10196784362_0_0" index="0" disallow="tram rail_urban rail rail_electric rail_fast ship" speed="13.89" length="11.05" shape="2749.53,2341.72 2748.99,2352.75"/>
    </edge>
    <edge id=":10196784362_1" function="internal">
        <lane id=":10196784362_1_0" index="0" disallow="pedestrian tram rail_urban rail rail_electric rail_fast ship" speed="7.29" length="2.45" shape="2749.53,2341.72 2748.86,2344.08"/>
    </edge>
    <edge id=":10196784362_2" function="internal">
        <lane id=":10196784362_2_0" index="0" disallow="tram rail_urban rail rail_electric rail_fast ship" speed="3.65" length="1.44" shape="2749.53,2341.72 2748.67,2342.88"/>
    </edge>
    <edge id=":10196784362_9" function="internal">
        <lane id=":10196784362_9_0" index="0" disallow="pedestrian tram rail_urban rail rail_electric rail_fast ship" speed="7.29" length="9.17" shape="2748.86,2344.08 2747.13,2345.70 2744.33,2346.58 2740.46,2346.72"/>
    </edge>
    <edge id=":10196784362_10" function="internal">
        <lane id=":10196784362_10_0" index="0" disallow="tram rail_urban rail rail_electric rail_fast ship" speed="3.65" length="3.23" shape="2748.67,2342.88 2747.85,2343.24 2747.07,2342.80 2746.33,2341.56"/>
    </edge>
    <edge id=":10196784362_3" function="internal">
        <lane id=":10196784362_3_0" index="0" disallow="pedestrian tram rail_urban rail rail_electric rail_fast ship" speed="5.65" length="6.56" shape="2740.63,2343.53 2743.08,2343.51 2744.85,2343.18 2745.93,2342.53 2746.33,2341.56"/>
    </edge>
    <edge id=":10196784362_4" function="internal">
        <lane id=":10196784362_4_0" index="0" disallow="pedestrian tram rail_urban rail rail_electric rail_fast ship" speed="8.01" length="14.19" shape="2740.63,2343.53 2744.44,2344.27 2747.11,2346.06 2748.62,2348.88 2748.99,2352.75"/>
    </edge>
    <edge id=":10196784362_5" function="internal">
        <lane id=":10196784362_5_0" index="0" disallow="pedestrian tram rail_urban rail rail_electric rail_fast ship" speed="3.65" length="4.67" shape="2740.63,2343.53 2741.78,2344.39 2742.14,2345.20 2741.70,2345.98 2740.46,2346.72"/>
    </edge>
    <edge id=":10196784362_6" function="internal">
        <lane id=":10196784362_6_0" index="0" disallow="pedestrian tram rail_urban rail rail_electric rail_fast ship" speed="6.52" length="9.04" shape="2745.79,2352.60 2745.56,2350.13 2744.60,2348.33 2742.90,2347.20 2740.46,2346.72"/>
    </edge>
    <edge id=":10196784362_7" function="internal">
        <lane id=":10196784362_7_0" index="0" disallow="tram rail_urban rail rail_electric rail_fast ship" speed="13.89" length="11.05" shape="2745.79,2352.60 2746.33,2341.56"/>
    </edge>
    <edge id=":10196784362_8" function="internal">
        <lane id=":10196784362_8_0" index="0" disallow="tram rail_urban rail rail_electric rail_fast ship" speed="3.65" length="1.44" shape="2745.79,2352.60 2746.65,2351.44"/>
    </edge>
    <edge id=":10196784362_11" function="internal">
        <lane id=":10196784362_11_0" index="0" disallow="tram rail_urban rail rail_electric rail_fast ship" speed="3.65" length="3.23" shape="2746.65,2351.44 2747.47,2351.08 2748.25,2351.52 2748.99,2352.75"/>
    </edge>
    <edge id=":10196784363_0" function="internal">
        <lane id=":10196784363_0_0" index="0" disallow="pedestrian tram rail_urban rail rail_electric rail_fast ship" speed="6.16" length="6.19" shape="3973.33,2310.03 3973.06,2311.65 3972.38,2312.93 3971.28,2313.88 3969.76,2314.50"/>
    </edge>
    <edge id=":10196784363_1" function="internal">
        <lane id=":10196784363_1_0" index="0" disallow="pedestrian tram rail_urban rail rail_electric rail_fast ship" speed="3.95" length="2.06" shape="3968.94,2311.41 3969.45,2311.20 3969.82,2310.89 3970.04,2310.46 3970.13,2309.92"/>
    </edge>
    <edge id=":10196784363_2" function="internal">
        <lane id=":10196784363_2_0" index="0" disallow="pedestrian tram rail_urban rail rail_electric rail_fast ship" speed="3.65" length="4.67" shape="3968.94,2311.41 3970.31,2311.88 3970.90,2312.55 3970.72,2313.42 3969.76,2314.50"/>
    </edge>
    <edge id=":10196784366_0" function="internal">
        <lane id=":10196784366_0_0" index="0" disallow="pedestrian tram rail_urban rail rail_electric rail_fast ship" speed="5.56" length="0.30" shape="3443.41,2314.96 3443.11,2314.95"/>
    </edge>
    <edge id=":10196784366_1" function="internal">
        <lane id=":10196784366_1_0" index="0" disallow="pedestrian tram rail_urban rail rail_electric rail_fast ship" speed="3.65" length="2.34" shape="3443.41,2314.96 3442.21,2314.15 3441.82,2313.34"/>
    </edge>
    <edge id=":10196784366_4" function="internal">
        <lane id=":10196784366_4_0" index="0" disallow="pedestrian tram rail_urban rail rail_electric rail_fast ship" speed="3.65" length="2.34" shape="3441.82,2313.34 3442.23,2312.55 3443.44,2311.76"/>
    </edge>
    <edge id=":10196784366_2" function="internal">
        <lane id=":10196784366_2_0" index="0" disallow="pedestrian tram rail_urban rail rail_electric rail_fast ship" speed="5.56" length="0.20" shape="3443.25,2311.76 3443.44,2311.76"/>
    </edge>
    <edge id=":10196784366_3" function="internal">
        <lane id=":10196784366_3_0" index="0" disallow="pedestrian tram rail_urban rail rail_electric rail_fast ship" speed="3.65" length="2.34" shape="3443.25,2311.76 3444.41,2312.61 3444.77,2313.42"/>
    </edge>
    <edge id=":10196784366_5" function="internal">
        <lane id=":10196784366_5_0" index="0" disallow="pedestrian tram rail_urban rail rail_electric rail_fast ship" speed="3.65" length="2.34" shape="3444.77,2313.42 3444.34,2314.21 3443.11,2314.95"/>
    </edge>
    <edge id=":10196784367_0" function="internal">
        <lane id=":10196784367_0_0" index="0" disallow="pedestrian tram rail_urban rail rail_electric rail_fast ship" speed="3.65" length="4.67" shape="3217.25,2304.59 3216.10,2303.71 3215.75,2302.89 3216.20,2302.11 3217.45,2301.39"/>
    </edge>
    <edge id=":1971533032_0" function="internal">
        <lane id=":1971533032_0_0" index="0" disallow="tram rail_urban rail rail_electric rail_fast ship" speed="8.74" length="13.83" shape="6060.59,1415.33 6059.29,1411.67 6057.28,1409.03 6054.57,1407.40 6051.16,1406.79"/>
    </edge>
    <edge id=":1971533032_1" function="internal">
        <lane id=":1971533032_1_0" index="0" disallow="tram rail_urban rail rail_electric rail_fast ship" speed="27.78" length="21.10" shape="6060.59,1415.33 6056.15,1394.66"/>
        <lane id=":1971533032_1_1" index="1" disallow="tram rail_urban rail rail_electric rail_fast ship" speed="27.78" length="21.10" shape="6063.71,1414.61 6059.28,1394.02"/>
    </edge>
    <edge id=":1971533032_3" function="internal">
        <lane id=":1971533032_3_0" index="0" disallow="tram rail_urban rail rail_electric rail_fast ship" speed="6.93" length="12.19" shape="6051.25,1403.59 6054.09,1403.10 6055.85,1401.45 6056.54,1398.64 6056.15,1394.66"/>
    </edge>
    <edge id=":1971533032_4" function="internal">
        <lane id=":1971533032_4_0" index="0" disallow="tram rail_urban rail rail_electric rail_fast ship" speed="3.65" length="1.44" shape="6051.25,1403.59 6052.42,1404.42"/>
    </edge>
    <edge id=":1971533032_5" function="internal">
        <lane id=":1971533032_5_0" index="0" disallow="tram rail_urban rail rail_electric rail_fast ship" speed="3.65" length="3.23" shape="6052.42,1404.42 6052.80,1405.23 6052.38,1406.02 6051.16,1406.79"/>
    </edge>
    <edge id=":1971613934_0" function="internal">
        <lane id=":1971613934_0_0" index="0" disallow="tram rail_urban rail rail_electric rail_fast ship" speed="7.30" length="11.75" shape="3596.35,764.45 3593.84,764.84 3591.99,766.37 3590.78,769.05 3590.23,772.89"/>
    </edge>
    <edge id=":1971613934_1" function="internal">
        <lane id=":1971613934_1_0" index="0" disallow="tram rail_urban rail rail_electric rail_fast ship" speed="22.22" length="15.06" shape="3596.35,764.45 3581.35,763.07"/>
    </edge>
    <edge id=":1971613934_2" function="internal">
        <lane id=":1971613934_2_0" index="0" disallow="tram rail_urban rail rail_electric rail_fast ship" speed="8.84" length="3.97" shape="3596.35,764.45 3592.51,763.43"/>
    </edge>
    <edge id=":1971613934_3" function="internal">
        <lane id=":1971613934_3_0" index="0" disallow="tram rail_urban rail rail_electric rail_fast ship" speed="3.65" length="1.44" shape="3596.35,764.45 3595.20,763.57"/>
    </edge>
    <edge id=":1971613934_16" function="internal">
        <lane id=":1971613934_16_0" index="0" disallow="tram rail_urban rail rail_electric rail_fast ship" speed="8.84" length="13.23" shape="3592.51,763.43 3589.85,760.96 3588.35,757.03 3588.01,751.65"/>
    </edge>
    <edge id=":1971613934_17" function="internal">
        <lane id=":1971613934_17_0" index="0" disallow="tram rail_urban rail rail_electric rail_fast ship" speed="3.65" length="3.23" shape="3595.20,763.57 3594.86,762.75 3595.31,761.98 3596.56,761.26"/>
    </edge>
    <edge id=":1971613934_4" function="internal">
        <lane id=":1971613934_4_0" index="0" disallow="tram rail_urban rail rail_electric rail_fast ship" speed="7.52" length="12.17" shape="3591.21,751.78 3591.41,755.78 3592.36,758.70 3594.08,760.52 3596.56,761.26"/>
    </edge>
    <edge id=":1971613934_5" function="internal">
        <lane id=":1971613934_5_0" index="0" disallow="tram rail_urban rail rail_electric rail_fast ship" speed="13.89" length="21.13" shape="3591.21,751.78 3590.23,772.89"/>
    </edge>
    <edge id=":1971613934_6" function="internal">
        <lane id=":1971613934_6_0" index="0" disallow="tram rail_urban rail rail_electric rail_fast ship" speed="8.55" length="5.65" shape="3591.21,751.78 3590.41,757.13 3590.29,757.34"/>
    </edge>
    <edge id=":1971613934_7" function="internal">
        <lane id=":1971613934_7_0" index="0" disallow="tram rail_urban rail rail_electric rail_fast ship" speed="3.65" length="1.44" shape="3591.21,751.78 3590.36,752.95"/>
    </edge>
    <edge id=":1971613934_18" function="internal">
        <lane id=":1971613934_18_0" index="0" disallow="tram rail_urban rail rail_electric rail_fast ship" speed="8.55" length="11.63" shape="3590.29,757.34 3588.49,760.79 3585.48,762.77 3581.35,763.07"/>
    </edge>
    <edge id=":1971613934_19" function="internal">
        <lane id=":1971613934_19_0" index="0" disallow="tram rail_urban rail rail_electric rail_fast ship" speed="3.65" length="3.23" shape="3590.36,752.95 3589.55,753.32 3588.76,752.88 3588.01,751.65"/>
    </edge>
    <edge id=":1971613934_8" function="internal">
        <lane id=":1971613934_8_0" index="0" disallow="tram rail_urban rail rail_electric rail_fast ship" speed="7.18" length="11.87" shape="3581.72,759.89 3584.34,759.63 3586.26,758.17 3587.48,755.51 3588.01,751.65"/>
    </edge>
    <edge id=":1971613934_9" function="internal">
        <lane id=":1971613934_9_0" index="0" disallow="tram rail_urban rail rail_electric rail_fast ship" speed="22.22" length="14.90" shape="3581.72,759.89 3596.56,761.26"/>
    </edge>
    <edge id=":1971613934_10" function="internal">
        <lane id=":1971613934_10_0" index="0" disallow="tram rail_urban rail rail_electric rail_fast ship" speed="9.01" length="3.52" shape="3581.72,759.89 3585.09,760.92"/>
    </edge>
    <edge id=":1971613934_11" function="internal">
        <lane id=":1971613934_11_0" index="0" disallow="tram rail_urban rail rail_electric rail_fast ship" speed="3.65" length="1.44" shape="3581.72,759.89 3582.82,760.82"/>
    </edge>
    <edge id=":1971613934_20" function="internal">
        <lane id=":1971613934_20_0" index="0" disallow="tram rail_urban rail rail_electric rail_fast ship" speed="9.01" length="13.87" shape="3585.09,760.92 3585.68,761.10 3588.42,763.67 3589.93,767.60 3590.23,772.89"/>
    </edge>
    <edge id=":1971613934_21" function="internal">
        <lane id=":1971613934_21_0" index="0" disallow="tram rail_urban rail rail_electric rail_fast ship" speed="3.65" length="3.23" shape="3582.82,760.82 3583.12,761.66 3582.63,762.41 3581.35,763.07"/>
    </edge>
    <edge id=":1971613934_12" function="internal">
        <lane id=":1971613934_12_0" index="0" disallow="tram rail_urban rail rail_electric rail_fast ship" speed="7.72" length="12.49" shape="3587.03,772.72 3586.85,768.76 3585.85,765.84 3584.01,763.94 3581.35,763.07"/>
    </edge>
    <edge id=":1971613934_13" function="internal">
        <lane id=":1971613934_13_0" index="0" disallow="tram rail_urban rail rail_electric rail_fast ship" speed="13.89" length="21.09" shape="3587.03,772.72 3588.01,751.65"/>
    </edge>
    <edge id=":1971613934_14" function="internal">
        <lane id=":1971613934_14_0" index="0" disallow="tram rail_urban rail rail_electric rail_fast ship" speed="8.65" length="5.48" shape="3587.03,772.72 3587.87,767.48 3587.94,767.32"/>
    </edge>
    <edge id=":1971613934_15" function="internal">
        <lane id=":1971613934_15_0" index="0" disallow="tram rail_urban rail rail_electric rail_fast ship" speed="3.65" length="1.44" shape="3587.03,772.72 3587.89,771.56"/>
    </edge>
    <edge id=":1971613934_22" function="internal">
        <lane id=":1971613934_22_0" index="0" disallow="tram rail_urban rail rail_electric rail_fast ship" speed="8.65" length="11.45" shape="3587.94,767.32 3589.73,763.83 3592.63,761.75 3596.56,761.26"/>
    </edge>
    <edge id=":1971613934_23" function="internal">
        <lane id=":1971613934_23_0" index="0" disallow="tram rail_urban rail rail_electric rail_fast ship" speed="3.65" length="3.23" shape="3587.89,771.56 3588.71,771.20 3589.49,771.64 3590.23,772.89"/>
    </edge>
    <edge id=":1971614214_0" function="internal">
        <lane id=":1971614214_0_0" index="0" disallow="tram rail_urban rail rail_electric rail_fast ship" speed="6.46" length="9.03" shape="3578.84,1075.11 3576.36,1075.30 3574.56,1076.23 3573.42,1077.92 3572.96,1080.36"/>
    </edge>
    <edge id=":1971614214_1" function="internal">
        <lane id=":1971614214_1_0" index="0" disallow="tram rail_urban rail rail_electric rail_fast ship" speed="13.89" length="14.89" shape="3578.84,1075.11 3564.03,1073.47"/>
    </edge>
    <edge id=":1971614214_2" function="internal">
        <lane id=":1971614214_2_0" index="0" disallow="tram rail_urban rail rail_electric rail_fast ship" speed="8.10" length="4.39" shape="3578.84,1075.11 3575.00,1074.28 3574.62,1074.01"/>
    </edge>
    <edge id=":1971614214_3" function="internal">
        <lane id=":1971614214_3_0" index="0" disallow="tram rail_urban rail rail_electric rail_fast ship" speed="3.65" length="1.44" shape="3578.84,1075.11 3577.70,1074.23"/>
    </edge>
    <edge id=":1971614214_15" function="internal">
        <lane id=":1971614214_15_0" index="0" disallow="tram rail_urban rail rail_electric rail_fast ship" speed="8.10" length="10.11" shape="3574.62,1074.01 3572.35,1072.39 3570.86,1069.44 3570.56,1065.44"/>
    </edge>
    <edge id=":1971614214_16" function="internal">
        <lane id=":1971614214_16_0" index="0" disallow="tram rail_urban rail rail_electric rail_fast ship" speed="3.65" length="3.23" shape="3577.70,1074.23 3577.35,1073.41 3577.80,1072.63 3579.06,1071.92"/>
    </edge>
    <edge id=":1971614214_4" function="internal">
        <lane id=":1971614214_4_0" index="0" disallow="tram rail_urban rail rail_electric rail_fast ship" speed="6.63" length="9.36" shape="3573.75,1065.63 3573.95,1068.24 3574.89,1070.15 3576.60,1071.38 3579.06,1071.92"/>
    </edge>
    <edge id=":1971614214_5" function="internal">
        <lane id=":1971614214_5_0" index="0" disallow="tram rail_urban rail rail_electric rail_fast ship" speed="13.89" length="14.75" shape="3573.75,1065.63 3572.96,1080.36"/>
    </edge>
    <edge id=":1971614214_6" function="internal">
        <lane id=":1971614214_6_0" index="0" disallow="tram rail_urban rail rail_electric rail_fast ship" speed="7.85" length="4.04" shape="3573.75,1065.63 3572.93,1069.59"/>
    </edge>
    <edge id=":1971614214_7" function="internal">
        <lane id=":1971614214_7_0" index="0" disallow="tram rail_urban rail rail_electric rail_fast ship" speed="3.65" length="1.44" shape="3573.75,1065.63 3572.88,1066.78"/>
    </edge>
    <edge id=":1971614214_17" function="internal">
        <lane id=":1971614214_17_0" index="0" disallow="tram rail_urban rail rail_electric rail_fast ship" speed="7.85" length="10.51" shape="3572.93,1069.59 3571.04,1072.21 3568.07,1073.50 3564.03,1073.47"/>
    </edge>
    <edge id=":1971614214_18" function="internal">
        <lane id=":1971614214_18_0" index="0" disallow="tram rail_urban rail rail_electric rail_fast ship" speed="3.65" length="3.23" shape="3572.88,1066.78 3572.06,1067.13 3571.28,1066.68 3570.56,1065.44"/>
    </edge>
    <edge id=":1971614214_8" function="internal">
        <lane id=":1971614214_8_0" index="0" disallow="tram rail_urban rail rail_electric rail_fast ship" speed="6.32" length="9.04" shape="3564.52,1070.31 3567.03,1070.33 3568.87,1069.52 3570.05,1067.89 3570.56,1065.44"/>
    </edge>
    <edge id=":1971614214_9" function="internal">
        <lane id=":1971614214_9_0" index="0" disallow="tram rail_urban rail rail_electric rail_fast ship" speed="13.89" length="14.63" shape="3564.52,1070.31 3579.06,1071.92"/>
    </edge>
    <edge id=":1971614214_10" function="internal">
        <lane id=":1971614214_10_0" index="0" disallow="tram rail_urban rail rail_electric rail_fast ship" speed="8.45" length="4.00" shape="3564.52,1070.31 3568.36,1071.44"/>
    </edge>
    <edge id=":1971614214_11" function="internal">
        <lane id=":1971614214_11_0" index="0" disallow="tram rail_urban rail rail_electric rail_fast ship" speed="3.65" length="1.44" shape="3564.52,1070.31 3565.58,1071.28"/>
    </edge>
    <edge id=":1971614214_19" function="internal">
        <lane id=":1971614214_19_0" index="0" disallow="tram rail_urban rail rail_electric rail_fast ship" speed="8.45" length="10.64" shape="3568.36,1071.44 3571.05,1073.49 3572.58,1076.47 3572.96,1080.36"/>
    </edge>
    <edge id=":1971614214_20" function="internal">
        <lane id=":1971614214_20_0" index="0" disallow="tram rail_urban rail rail_electric rail_fast ship" speed="3.65" length="3.23" shape="3565.58,1071.28 3565.86,1072.13 3565.34,1072.86 3564.03,1073.47"/>
    </edge>
    <edge id=":1971614214_12" function="internal">
        <lane id=":1971614214_12_0" index="0" disallow="tram rail_urban rail rail_electric rail_fast ship" speed="7.04" length="9.87" shape="3569.76,1080.21 3569.50,1077.61 3568.46,1075.61 3566.64,1074.23 3564.03,1073.47"/>
    </edge>
    <edge id=":1971614214_13" function="internal">
        <lane id=":1971614214_13_0" index="0" disallow="tram rail_urban rail rail_electric rail_fast ship" speed="13.89" length="14.80" shape="3569.76,1080.21 3570.56,1065.44"/>
    </edge>
    <edge id=":1971614214_14" function="internal">
        <lane id=":1971614214_14_0" index="0" disallow="tram rail_urban rail rail_electric rail_fast ship" speed="7.96" length="4.15" shape="3569.76,1080.21 3570.49,1076.36 3570.62,1076.17"/>
    </edge>
    <edge id=":1971614214_21" function="internal">
        <lane id=":1971614214_21_0" index="0" disallow="tram rail_urban rail rail_electric rail_fast ship" speed="7.96" length="10.13" shape="3570.62,1076.17 3572.29,1073.69 3575.14,1072.21 3579.06,1071.92"/>
    </edge>
    <edge id=":1973575282_0" function="internal">
        <lane id=":1973575282_0_0" index="0" disallow="tram rail_urban rail rail_electric rail_fast ship" speed="7.35" length="11.78" shape="5321.02,1378.46 5318.55,1378.91 5316.73,1380.49 5315.55,1383.21 5315.02,1387.07"/>
    </edge>
    <edge id=":1973575282_1" function="internal">
        <lane id=":1973575282_1_0" index="0" disallow="tram rail_urban rail rail_electric rail_fast ship" speed="22.22" length="14.46" shape="5321.02,1378.46 5306.57,1377.92"/>
    </edge>
    <edge id=":1973575282_2" function="internal">
        <lane id=":1973575282_2_0" index="0" disallow="tram rail_urban rail rail_electric rail_fast ship" speed="3.65" length="1.44" shape="5321.02,1378.46 5319.86,1377.61"/>
    </edge>
    <edge id=":1973575282_8" function="internal">
        <lane id=":1973575282_8_0" index="0" disallow="tram rail_urban rail rail_electric rail_fast ship" speed="3.65" length="3.23" shape="5319.86,1377.61 5319.49,1376.80 5319.93,1376.01 5321.16,1375.27"/>
    </edge>
    <edge id=":1973575282_3" function="internal">
        <lane id=":1973575282_3_0" index="0" disallow="tram rail_urban rail rail_electric rail_fast ship" speed="22.22" length="14.50" shape="5306.67,1374.72 5321.16,1375.27"/>
    </edge>
    <edge id=":1973575282_4" function="internal">
        <lane id=":1973575282_4_0" index="0" disallow="tram rail_urban rail rail_electric rail_fast ship" speed="8.64" length="3.78" shape="5306.67,1374.72 5310.36,1375.56"/>
    </edge>
    <edge id=":1973575282_5" function="internal">
        <lane id=":1973575282_5_0" index="0" disallow="tram rail_urban rail rail_electric rail_fast ship" speed="3.65" length="1.44" shape="5306.67,1374.72 5307.84,1375.56"/>
    </edge>
    <edge id=":1973575282_9" function="internal">
        <lane id=":1973575282_9_0" index="0" disallow="tram rail_urban rail rail_electric rail_fast ship" speed="8.64" length="13.16" shape="5310.36,1375.56 5310.54,1375.60 5313.22,1377.95 5314.71,1381.77 5315.02,1387.07"/>
    </edge>
    <edge id=":1973575282_10" function="internal">
        <lane id=":1973575282_10_0" index="0" disallow="tram rail_urban rail rail_electric rail_fast ship" speed="3.65" length="3.23" shape="5307.84,1375.56 5308.22,1376.37 5307.79,1377.16 5306.57,1377.92"/>
    </edge>
    <edge id=":1973575282_6" function="internal">
        <lane id=":1973575282_6_0" index="0" disallow="tram rail_urban rail rail_electric rail_fast ship" speed="7.29" length="11.76" shape="5311.82,1386.91 5311.65,1383.05 5310.72,1380.26 5309.03,1378.55 5306.57,1377.92"/>
    </edge>
    <edge id=":1973575282_7" function="internal">
        <lane id=":1973575282_7_0" index="0" disallow="tram rail_urban rail rail_electric rail_fast ship" speed="8.69" length="16.89" shape="5311.82,1386.91 5312.62,1381.67 5314.44,1377.99 5317.29,1375.85 5321.16,1375.27"/>
    </edge>
    <edge id=":1973575283_0" function="internal">
        <lane id=":1973575283_0_0" index="0" disallow="tram rail_urban rail rail_electric rail_fast ship" speed="22.22" length="14.01" shape="4723.23,1356.01 4709.23,1355.76"/>
    </edge>
    <edge id=":1973575283_1" function="internal">
        <lane id=":1973575283_1_0" index="0" disallow="tram rail_urban rail rail_electric rail_fast ship" speed="8.67" length="3.35" shape="4723.23,1356.01 4719.97,1355.23"/>
    </edge>
    <edge id=":1973575283_2" function="internal">
        <lane id=":1973575283_2_0" index="0" disallow="tram rail_urban rail rail_electric rail_fast ship" speed="3.65" length="1.44" shape="4723.23,1356.01 4722.07,1355.16"/>
    </edge>
    <edge id=":1973575283_9" function="internal">
        <lane id=":1973575283_9_0" index="0" disallow="tram rail_urban rail rail_electric rail_fast ship" speed="8.67" length="13.50" shape="4719.97,1355.23 4719.41,1355.10 4716.76,1352.74 4715.27,1348.92 4714.95,1343.65"/>
    </edge>
    <edge id=":1973575283_10" function="internal">
        <lane id=":1973575283_10_0" index="0" disallow="tram rail_urban rail rail_electric rail_fast ship" speed="3.65" length="3.23" shape="4722.07,1355.16 4721.70,1354.35 4722.13,1353.57 4723.37,1352.82"/>
    </edge>
    <edge id=":1973575283_3" function="internal">
        <lane id=":1973575283_3_0" index="0" disallow="tram rail_urban rail rail_electric rail_fast ship" speed="7.32" length="11.73" shape="4718.15,1343.79 4718.33,1347.65 4719.26,1350.44 4720.94,1352.16 4723.37,1352.82"/>
    </edge>
    <edge id=":1973575283_4" function="internal">
        <lane id=":1973575283_4_0" index="0" disallow="tram rail_urban rail rail_electric rail_fast ship" speed="8.80" length="16.71" shape="4718.15,1343.79 4717.40,1349.00 4715.66,1352.74 4712.94,1354.99 4709.23,1355.76"/>
    </edge>
    <edge id=":1973575283_5" function="internal">